*Heading
** Job name: tube Model name: Model-1
** Generated by: Abaqus/CAE 2022.HF4
*Preprint, echo=NO, model=NO, history=NO, contact=NO
**
** PARTS
**
*Part, name=Part-1
*End Part
**  
**
** ASSEMBLY
**
*Assembly, name=Assembly
**  
*Instance, name=Part-1-1, part=Part-1
*Node
      1,          20.,           0.,         200.
      2,          20.,           0.,         100.
      3,           0.,          20.,         100.
      4,         -20.,           0.,         100.
      5,           0.,          20.,         200.
      6,         -20.,           0.,         200.
      7,          20.,           0.,           0.
      8,         -20.,           0.,           0.
      9,           0.,          20.,           0.
     10,          20.,           0.,   194.444443
     11,          20.,           0.,   188.888885
     12,          20.,           0.,   183.333328
     13,          20.,           0.,   177.777771
     14,          20.,           0.,   172.222229
     15,          20.,           0.,   166.666672
     16,          20.,           0.,   161.111115
     17,          20.,           0.,   155.555557
     18,          20.,           0.,         150.
     19,          20.,           0.,   144.444443
     20,          20.,           0.,   138.888885
** ... 831 like lines cut
*Element, type=S4R
  1,   1,  10, 138,  58
  2,  10,  11, 139, 138
  3,  11,  12, 140, 139
  4,  12,  13, 141, 140
  5,  13,  14, 142, 141
  6,  14,  15, 143, 142
  7,  15,  16, 144, 143
  8,  16,  17, 145, 144
  9,  17,  18, 146, 145
 10,  18,  19, 147, 146
 11,  19,  20, 148, 147
 12,  20,  21, 149, 148
 13,  21,  22, 150, 149
 14,  22,  23, 151, 150
 15,  23,  24, 152, 151
 16,  24,  25, 153, 152
 17,  25,  26, 154, 153
 18,  26,   2,  27, 154
 19,  58, 138, 155,  57
 20, 138, 139, 156, 155
** ... 808 like lines cut
*Nset, nset=_PickedSet4, internal, generate
   1,  851,    1
*Elset, elset=_PickedSet4, internal, generate
   1,  828,    1
** Section: Section-1
*Shell Section, elset=_PickedSet4, material=steel
2., 3
*End Instance
**  
*Nset, nset=edge-path, instance=Part-1-1
  2,  3,  4, 27, 28, 29, 30, 31, 32, 33, 34, 35, 36, 81, 82, 83
 84, 85, 86, 87, 88, 89, 90
*Elset, elset=edge-path, instance=Part-1-1
  18,  36,  54,  72,  90, 108, 126, 144, 162, 180, 198, 216, 234, 252, 270, 288
 306, 324, 342, 360, 378, 396, 414, 415, 433, 451, 469, 487, 505, 523, 541, 559
 577, 595, 613, 631, 649, 667, 685, 703, 721, 739, 757, 775, 793, 811
*Nset, nset=edge-path2, instance=Part-1-1
  1,  2,  7, 10, 11, 12, 13, 14, 15, 16, 17, 18, 19, 20, 21, 22
 23, 24, 25, 26, 64, 65, 66, 67, 68, 69, 70, 71, 72, 73, 74, 75
 76, 77, 78, 79, 80
*Elset, elset=edge-path2, instance=Part-1-1
   1,   2,   3,   4,   5,   6,   7,   8,   9,  10,  11,  12,  13,  14,  15,  16
  17,  18, 217, 218, 219, 220, 221, 222, 223, 224, 225, 226, 227, 228, 229, 230
 231, 232, 233, 234, 415, 416, 417, 418, 419, 420, 421, 422, 423, 424, 425, 426
 427, 428, 429, 430, 431, 432, 631, 632, 633, 634, 635, 636, 637, 638, 639, 640
 641, 642, 643, 644, 645, 646, 647, 648
*Nset, nset=node-path, instance=Part-1-1
 2,
*Nset, nset=node-path2, instance=Part-1-1
 7,
*Nset, nset=_PickedSet12, internal, instance=Part-1-1
   7,   8,   9, 108, 109, 110, 111, 112, 113, 114, 115, 116, 117, 118, 119, 120
 121, 122, 123, 124, 125, 126, 127
*Elset, elset=_PickedSet12, internal, instance=Part-1-1
 217, 235, 253, 271, 289, 307, 325, 343, 361, 379, 397, 432, 450, 468, 486, 504
 522, 540, 558, 576, 594, 612, 630
*Elset, elset=__PickedSurf13_E4, internal, instance=Part-1-1, generate
   1,  199,   18
*Elset, elset=__PickedSurf13_E2, internal, instance=Part-1-1, generate
 648,  828,   18
*Surface, type=ELEMENT, name=_PickedSurf13, internal
__PickedSurf13_E4, E4
__PickedSurf13_E2, E2
*End Assembly
** 
** MATERIALS
** 
*Material, name=steel
*Elastic
210000., 0.3
** ----------------------------------------------------------------
** 
** STEP: Step-1
** 
*Step, name=Step-1, nlgeom=YES, extrapolation=PARABOLIC
*Static
0.3, 1., 1e-05, 1.
** 
** BOUNDARY CONDITIONS
** 
** Name: BC-1 Type: Symmetry/Antisymmetry/Encastre
*Boundary
_PickedSet12, ENCASTRE
** 
** LOADS
** 
** Name: Load-1   Type: Shell edge load
*Dsload, follower=NO
_PickedSurf13, EDLD, 500., -1., 0., 0.
** 
** OUTPUT REQUESTS
** 
*Restart, write, frequency=0
** 
** FIELD OUTPUT: F-Output-1
** 
*Output, field, variable=PRESELECT
** 
** HISTORY OUTPUT: H-Output-1
** 
*Output, history, variable=PRESELECT
*End Step
